/*--------------------------------*- C++ -*----------------------------------*\
| =========                 |                                                 |
| \\      /  F ield         | OpenFOAM: The Open Source CFD Toolbox           |
|  \\    /   O peration     | Version:  1.6                                   |
|   \\  /    A nd           | Web:      www.OpenFOAM.org                      |
|    \\/     M anipulation  |                                                 |
\*---------------------------------------------------------------------------*/
FoamFile
{
    version     2.0;
    format      ascii;
    class       dictionary;
    location    "system";
    object      controlDict;
}
// * * * * * * * * * * * * * * * * * * * * * * * * * * * * * * * * * * * * * //

application     dsmcFoamPlus;

nTerminalOutputs	1; 

startFrom       latestTime;

startTime       0;

stopAt          endTime;

endTime         4.9632e-3;

deltaT          3.102e-7;

writeControl    runTime;

writeInterval   3.102e-5;

purgeWrite      10;

writeFormat     ascii;

writePrecision  10;

writeCompression off;

timeFormat      general;

timePrecision   10;

runTimeModifiable true;

adjustTimeStep  no;

functions
{
    fieldAverage1 
 ​    ( 
 ​        #includeEtc ​"​caseDicts/postProcessing/fields/fieldAverage.cfg​" 

 ​        fields 
 ​        { 
 ​            rhoN 
 ​            rhoM 
 ​            dsmcRhoN 
 ​            momentum 
 ​            linearKE 
 ​            internalE 
 ​            iDof 
 ​            q 
 ​            ​fD 
 ​        }
 ​    ); 

    dsmcFields1 
 ​   ( 
 ​      type            dsmcFields; 
 ​      ​libs​            (​"​liblagrangianFunctionObjects.so​"​); 
 ​      writeControl    writeTime; 
 ​   );

    forces1
    (
        type            forces;
        enabled         true;
        functionObjectLibs ( "libforces.so" );
        outputControl   outputTime;
        patches         ( walls );
        directForceDensity true;
        fDName          fD_N2;
        CofR            ( 0 0 0 );
        log             on;
    );
}


// ************************************************************************* //



