/*--------------------------------*- C++ -*----------------------------------*\
| =========                 |                                                 |
| \\      /  F ield         | OpenFOAM: The Open Source CFD Toolbox           |
|  \\    /   O peration     | Version:  dev                                   |
|   \\  /    A nd           | Web:      www.OpenFOAM.com                      |
|    \\/     M anipulation  |                                                 |
\*---------------------------------------------------------------------------*/
FoamFile
{
    version     2.0;
    format      ascii;
    class       dictionary;
    object      blockMeshDict;
}
// * * * * * * * * * * * * * * * * * * * * * * * * * * * * * * * * * * * * * //

convertToMeters 1e-3;

angle var_angle;
x1 varX1;
x2 varX2;
x3 varX3;
x4 varX4;
y1 varY1;
y2 varY2;
y3 varY3;



vertices
(
    (0 -102.5 0)    //0	
    (100 -102.5 0)  //1
    (100 -2.5 0)    //2	
    (0 -2.5 0)	    //3
    (0 -102.5 1)    //4	
    (100 -102.5 1)  //5	
    (100 -2.5 1)    //6	
    (0 -2.5 1)      //7

    ( 120 -102.5 0) //8
    (120 -2.5 0)    //9
    ( 120 -102.5 1) //10
    (120 -2.5 1)    //11

    (-60 -102.5 0)  //12
    (-60 -2.5 0)    //13 
    (-60 -102.5 1)  //14
    (-60 -2.5 1)    //15

    (-60 2.5 0)     //16
    (0 2.5 0)       //17
    (-60 2.5 1)     //18
    (0 2.5 1)       //19

    (100 2.5 0)     //20
    (120 2.5 0)     //21
    (100 2.5 1)     //22
    (120 2.5 1)     //23

    (-60 102.5 0)   //24 
    (0 102.5 0)     //25
    (-60 102.5 1)   //26
    (0 102.5 1)     //27

    (30 2.5 0)      //28
    (30 102.5 0)    //29
    (30 2.5 1)      //30
    (30 102.5 1)    //31
  
    (50 $angle 0)   //32*
    (50 102.5 0)    //33
    (50 $angle 1)   //34*
    (50 102.5 1)    //35

    (70 2.5 0)      //36
    (70 102.5 0)    //37
    (70 2.5 1)      //38
    (70 102.5 1)    //39
    
    (100 102.5 0)   //40
    (100 102.5 1)   //41
    (120 102.5 0)   //42
    (120 102.5 1)   //43
    
);

blocks
(
    hex (0 1 2 3 4 5 6 7)         ($x1 $y1 2) simpleGrading (1 1 1)         //Block A
    hex (1 8 9 2 5 10 11 6)       ($x2 $y1 2) simpleGrading (1 1 1)        //Block B
    hex (12 0 3 13 14 4 7 15)     ($x3 $y1 2) simpleGrading (1 1 1)     //Block C
    hex (13 3 17 16 15 7 19 18)   ($x3 $y2 2) simpleGrading (1 1 1)   //Block D
    hex (2 9 21 20 6 11 23 22)    ($x2 $y2 2) simpleGrading (1 1 1)     //Block E
    hex (16 17 25 24 18 19 27 26) ($x3 $y1 2) simpleGrading (1 1 1) //Block F
    hex (17 28 29 25 19 30 31 27) ($x4 $y1 2) simpleGrading (1 1 1)  //Block G
    hex (28 32 33 29 30 34 35 31) ($x2 $y1 2) simpleGrading (1 1 1)  //Block H
    hex (32 36 37 33 34 38 39 35) ($x2 $y1 2) simpleGrading (1 1 1)  //Block I
    hex (36 20 40 37 38 22 41 39) ($x4 $y1 2) simpleGrading (1 1 1)  //Block J
    hex (20 21 42 40 22 23 43 41) ($x2 $y1 2) simpleGrading (1 1 1)  //Block K
);

edges
(
);

patches
(
    wall 
	walls
    (
        (3 17 19 7)
        (3 2 6 7)
        (17 28 30 19)
        (28 32 34 30)
        (32 36 38 34)
        (36 20 22 38)
        (2 20 22 6)
    )

     patch 
	inlet
    (
        (12 13 15 14)
        (13 16 18 15)
        (16 24 26 18)
        (12 0 4 14)
        (0 1 5 4)
        (1 8 10 5)
        (8 9 11 10)
        (9 21 23 11)
        (21 42 43 23)
        (42 40 41 43)
        (40 37 39 41)
        (37 33 35 39)
        (33 29 31 35)
        (29 25 27 31)
        (25 24 26 27)
    )
    

/*    empty*/
/*	Front_and_Back*/
/*    (*/
/*        (0 1 2 3)*/
/*        (4 5 6 7)*/
/*    )*/
  
);

mergePatchPairs
(
);

// ************************************************************************* //
