/*--------------------------------*- C++ -*----------------------------------*\
| =========                 |                                                 |
| \\      /  F ield         | OpenFOAM: The Open Source CFD Toolbox           |
|  \\    /   O peration     | Version:  1.6                                   |
|   \\  /    A nd           | Web:      www.OpenFOAM.org                      |
|    \\/     M anipulation  |                                                 |
\*---------------------------------------------------------------------------*/
FoamFile
{
    version     2.0;
    format      ascii;
    class       dictionary;
    location    "constant";
    object      dsmcProperties;
}
// * * * * * * * * * * * * * * * * * * * * * * * * * * * * * * * * * * * * * //


// General Properties
// ~~~~~~~~~~~~~~~~~~

nEquivalentParticles            4.645e10;
chargedParticles                false;
adsorption                      false;


// Binary Collision Model
// ~~~~~~~~~~~~~~~~~~~~~~

BinaryCollisionModel            LarsenBorgnakkeVariableHardSphere;

LarsenBorgnakkeVariableHardSphereCoeffs
{
    Tref                        	        273;
    rotationalRelaxationCollisionNumber     5.0;
    electronicRelaxationCollisionNumber     5.0;
}

// Collision Partner Selection Model
// ~~~~~~~~~~~~~~~~~~~~~~

collisionPartnerSelectionModel   		noTimeCounter;  


// Axisymmetric Properties
// ~~~~~~~~~~~~~~~~~~~~~~

axisymmetricSimulation          no;



// Molecular species
// ~~~~~~~~~~~~~~~~~

typeIdList                      (N2);

moleculeProperties

{
    N2
    {
        mass                                  46.5e-27;
        diameter                              4.17e-10;
        omega                                     0.74;
        alpha                                     1.36;
        rotationalDegreesOfFreedom                   2;
        nVibrationalModes                            1;
        characteristicVibrationalTemperature    (3371);
        dissociationTemperature                 113500;
        Zref                                   (52560);
        referenceTempForZref                      (3371);
        ionisationTemperature                 180798.3;
        charge                                       0;
        internalDegreesOfFreedom                     0;
    } 
}


// ************************************************************************* //
